38
Properties=species:S:1:pos:R:3:momenta:R:3:forces:R:3 energy=-173.9284265117896 pbc="F F F"
Ag       0.19476799       0.33063656       1.70692721      -1.76313781       0.12026767       0.65451767       0.00025571      -0.00023043       0.00005874
Ag       1.15921743      -1.15146151      -0.62547463      -1.87639265      -7.07284373       3.05458831      -0.00037982       0.00030855      -0.00042582
Ag       1.48514068      -0.06762738       0.92230600       0.17596876      -0.13359466      -1.58136637      -0.00067857       0.00015396      -0.00010809
Ag      -0.14980464       1.44251683      -0.97855531       1.07563150       0.70372118       0.50629950       0.00031459      -0.00048660       0.00009364
Ag       1.42772613       0.35302654      -0.94753780      -2.18089224       1.14150985      -2.70430971      -0.00030597      -0.00071103       0.00002652
Ag      -0.68812463      -1.57370144      -0.33288442      -2.67294252      -2.17678261       0.04614869       0.00029282       0.00033247       0.00015643
Ag      -1.42773526      -0.35300345       0.94752707      -1.67530062       0.94048099      -3.57067368       0.00012535      -0.00040264       0.00018115
Ag       0.68812571       1.57369048       0.33290325      -3.96593727       0.91357421      -4.56937163      -0.00026316       0.00001127      -0.00064223
Ag      -1.15922045       1.15145353       0.62547779      -1.46948008       0.83326927       0.13917349       0.00018846      -0.00044099      -0.00028820
Ag       0.14980353      -1.44249852       0.97856853       3.54595306       0.25889666       1.99277764      -0.00014003       0.00001478      -0.00037559
Ag      -1.48511961       0.06761936      -0.92232311       2.07990794      -0.19911524      -0.57315492      -0.00016428       0.00005228       0.00011129
Ag      -0.70570284       0.62070735      -1.47565232      -3.61468499       1.93240465      -1.26083326       0.00024496       0.00006262       0.00013883
Ag      -0.87453595       0.46481405       1.44221035       2.48677248      -0.58572905      -1.01287647       0.00005526       0.00026581       0.00036144
Ag      -0.97420771      -0.88372618      -1.15360198       2.32247737       3.19676258       0.00502717       0.00030067       0.00029842       0.00010346
Ag      -0.19477654      -0.33063585      -1.70691793       0.07135672      -0.95350081      -3.34327087      -0.00004623       0.00013948       0.00001943
Ag       0.37599330      -1.70723731      -0.06944398      -2.03185879       2.32959320      -0.69923268      -0.00000448       0.00029143      -0.00035409
Ag      -1.71242960       0.33363525       0.13079597       4.17817870      -6.46809076      -3.06604392      -0.00029341      -0.00022904      -0.00027413
Ag       0.91431593       1.30899754      -0.71512106       0.38861701      -3.51269433       1.09113901      -0.00026074      -0.00027321      -0.00014001
Ag      -0.37599203       1.70723003       0.06946343      -0.94796961       1.53243648       0.01443728       0.00008710      -0.00003044      -0.00023696
Ag       1.71242812      -0.33363123      -0.13082073      -2.95668817      -0.80597175       2.80489616       0.00018319       0.00024092       0.00033151
Ag      -0.91431870      -1.30897855       0.71512905      -0.19087141       0.86486142      -0.77772739      -0.00011519      -0.00029646       0.00040934
Ag       0.97420851       0.88370230       1.15360696       5.92416636       3.50021651      -0.58376609       0.00022703       0.00002096       0.00000458
Ag       0.70571044      -0.62069076       1.47565030      -2.06453119       3.05619140       1.13904747      -0.00018893      -0.00029912      -0.00015709
Ag       0.87453197      -0.46481272      -1.44221070      -2.17628651      -0.33968477       2.41084461      -0.00019221       0.00012481       0.00030865
Ag      -1.19548049      -0.61719231      -0.10214494       3.39433991       0.03388195       0.55834944       0.00011772      -0.00017744      -0.00026915
Ag       0.09173631      -1.01448879      -0.88484104      -1.86655406      -0.13693066       2.43347700      -0.00017750       0.00043383       0.00032707
Ag       0.92762431      -0.88361233       0.42341408       0.07525069       3.76414130      -2.77876670      -0.00026214       0.00027849       0.00025901
Ag       1.19547445       0.61718838       0.10213991      -0.18728497      -2.60616435      -1.81135503       0.00063578       0.00016070       0.00044579
Ag      -0.92761768       0.88361236      -0.42341735      -4.68020356       1.66317618       0.68901813      -0.00003707      -0.00014785      -0.00002494
Ag      -0.35959423      -0.48631676       1.20611338       3.47702722       0.72907269      -1.09335180       0.00007906      -0.00018005      -0.00008633
Ag       0.35958916       0.48632959      -1.20611528      -3.88465104      -2.34320560       3.46415008       0.00046941      -0.00031456       0.00043636
Ag      -0.09173521       1.01446946       0.88484006       0.67045451       1.73074120      -2.32404944      -0.00017613       0.00054515       0.00020130
Ag       0.64107025      -0.19786334      -0.38980954      -1.41063651       1.69037720       1.64191087      -0.00003119      -0.00010899      -0.00046142
Ag      -0.41629428      -0.06517987      -0.65155021      -1.53510438      -1.08731497      -3.90537458      -0.00008712       0.00001516      -0.00078369
Ag       0.13340196       0.74744063      -0.16000333       1.60962853      -0.19863064      -0.00288659      -0.00024142       0.00082056      -0.00031585
Ag      -0.64107328       0.19785932       0.38980123       0.37453076       1.33450880       0.93242339       0.00045080       0.00026819       0.00074379
Ag       0.41629684       0.06517333       0.65154909      -1.24205346      -0.95569238       0.03535172       0.00007999      -0.00019026       0.00008792
Ag      -0.13339989      -0.74744460       0.16000200      -1.54217066      -1.45161256       3.52715526      -0.00006232      -0.00032074       0.00013736
38
Properties=species:S:1:pos:R:3:momenta:R:3:forces:R:3 energy=-173.92842206926892 pbc="F F F"
Ag       0.19475165       0.33063768       1.70693328      -1.76279809       0.12059171       0.65436256       0.00604297       0.00623845      -0.00293473
Ag       1.15920003      -1.15152708      -0.62544631      -1.87636062      -7.07230416       3.05428542       0.00097363       0.00969559      -0.00519017
Ag       1.48514231      -0.06762862       0.92229134       0.17583509      -0.13351031      -1.58112361      -0.00179979       0.00141000       0.00460913
Ag      -0.14979467       1.44252336      -0.97855061       1.07553816       0.70354528       0.50636878      -0.00204525      -0.00277484       0.00119084
Ag       1.42770591       0.35303712      -0.94756287      -2.18079675       1.14119689      -2.70416921       0.00207635      -0.00509159       0.00257864
Ag      -0.68814941      -1.57372162      -0.33288399      -2.67287187      -2.17666713       0.04610401       0.00101700       0.00180853      -0.00098477
Ag      -1.42775079      -0.35299473       0.94749397      -1.67501267       0.94032544      -3.57027676       0.00521367      -0.00248139       0.00717808
Ag       0.68808894       1.57369895       0.33286088      -3.96561075       0.91352065      -4.56920917       0.00631726      -0.00100436       0.00365436
Ag      -1.15923408       1.15146125       0.62547908      -1.46947705       0.83309407       0.13915396      -0.00013240      -0.00280742      -0.00007401
Ag       0.14983640      -1.44249612       0.97858701       3.54583175       0.25888432       1.99264265      -0.00210935      -0.00024367      -0.00212728
Ag      -1.48510032       0.06761751      -0.92232842       2.07963938      -0.19914808      -0.57324480      -0.00481502      -0.00066114      -0.00177767
Ag      -0.70573635       0.62072527      -1.47566400      -3.61442863       1.93236903      -1.26078467       0.00450824      -0.00072315       0.00076225
Ag      -0.87451290       0.46480862       1.44220096       2.48658874      -0.58567592      -1.01285542      -0.00346217       0.00071929       0.00002889
Ag      -0.97418618      -0.88369654      -1.15360194       2.32230305       3.19645192       0.00496087      -0.00353278      -0.00605845      -0.00133272
Ag      -0.19477588      -0.33064469      -1.70694892       0.07132802      -0.95336354      -3.34321474      -0.00048592       0.00240553       0.00102139
Ag       0.37597447      -1.70721571      -0.06945047      -2.03193393       2.32939280      -0.69900979      -0.00138857      -0.00400710       0.00448661
Ag      -1.71239087       0.33357529       0.13076754       4.17779670      -6.46766217      -3.06596033      -0.00678930       0.00817571       0.00182412
Ag       0.91431953       1.30896497      -0.71511094       0.38859503      -3.51251828       1.09089629      -0.00014681       0.00353733      -0.00436041
Ag      -0.37600081       1.70724424       0.06946356      -0.94813252       1.53235144       0.01430185      -0.00310767      -0.00154626      -0.00227413
Ag       1.71240071      -0.33363871      -0.13079473      -2.95648581      -0.80596646       2.80439821       0.00356887      -0.00014282      -0.00956397
Ag      -0.91432047      -1.30897053       0.71512184      -0.19077656       0.86473568      -0.77745348       0.00187380      -0.00203492       0.00466931
Ag       0.97426343       0.88373475       1.15360155       5.92366823       3.49997790      -0.58391983      -0.00946283      -0.00444517      -0.00285509
Ag       0.70569130      -0.62066243       1.47566086      -2.06421501       3.05602192       1.13894991       0.00605129      -0.00284312      -0.00165171
Ag       0.87451179      -0.46481587      -1.44218835      -2.17623656      -0.33984406       2.41099419       0.00111830      -0.00307812       0.00246468
Ag      -1.19544902      -0.61719200      -0.10213976       3.39425122       0.03370004       0.55809072      -0.00176220      -0.00319530      -0.00452779
Ag       0.09171900      -1.01449006      -0.88481848      -1.86645526      -0.13677123       2.43341011       0.00200929       0.00252208      -0.00156724
Ag       0.92762501      -0.88357744       0.42338832       0.07498080       3.76378411      -2.77827661      -0.00474194      -0.00690116       0.00882796
Ag       1.19547271       0.61716422       0.10212311      -0.18722297      -2.60582566      -1.81102211       0.00051375       0.00611885       0.00572689
Ag      -0.92766107       0.88362777      -0.42341097      -4.67957648       1.66312120       0.68887342       0.01166389      -0.00087163      -0.00265817
Ag      -0.35956200      -0.48631000       1.20610325       3.47641564       0.72891583      -1.09323683      -0.01141836      -0.00272827       0.00221798
Ag       0.35955315       0.48630787      -1.20608317      -3.88450584      -2.34305648       3.46383184       0.00222288       0.00307951      -0.00633692
Ag      -0.09172899       1.01448550       0.88481852       0.67056638       1.73064567      -2.32375475       0.00225037      -0.00231638       0.00526249
Ag       0.64105717      -0.19784767      -0.38979432      -1.41068615       1.68985423       1.64159846      -0.00088919      -0.00958741      -0.00533090
Ag      -0.41630851      -0.06518995      -0.65158641      -1.53496259      -1.08696021      -3.90470604       0.00271609       0.00656247       0.01317931
Ag       0.13341688       0.74743879      -0.16000335       1.60890455      -0.19855969      -0.00294652      -0.01318212       0.00049496      -0.00079533
Ag      -0.64106981       0.19787169       0.38980988       0.37472972       1.33449279       0.93211843       0.00323803      -0.00056507      -0.00639797
Ag       0.41628533       0.06516447       0.65154942      -1.24176730      -0.95521214       0.03551996       0.00522582       0.00909442       0.00303149
Ag      -0.13341418      -0.74745806       0.16003469      -1.54203000      -1.45140086       3.52662476       0.00267018       0.00424604      -0.00997345
